<?xml version="1.0" encoding="UTF-8"?>

<!-- generated on 2025-02-24 21:02:52 by Eclipse SUMO netconvert Version 1.22.0
<netconvertConfiguration xmlns:xsi="http://www.w3.org/2001/XMLSchema-instance" xsi:noNamespaceSchemaLocation="http://sumo.dlr.de/xsd/netconvertConfiguration.xsd">

    <input>
        <node-files value="network.nod.xml"/>
        <edge-files value="network.edg.xml"/>
    </input>

    <output>
        <output-file value="network.net.xml"/>
    </output>

</netconvertConfiguration>
-->

<net version="1.20" junctionCornerDetail="5" limitTurnSpeed="5.50" xmlns:xsi="http://www.w3.org/2001/XMLSchema-instance" xsi:noNamespaceSchemaLocation="http://sumo.dlr.de/xsd/net_file.xsd">

    <location netOffset="100.00,100.00" convBoundary="0.00,0.00,200.00,200.00" origBoundary="-100.00,-100.00,100.00,100.00" projParameter="!"/>

    <edge id=":A_0" function="internal">
        <lane id=":A_0_0" index="0" speed="6.51" length="9.03" shape="98.40,107.20 98.05,104.75 97.00,103.00 95.25,101.95 92.80,101.60"/>
    </edge>
    <edge id=":A_1" function="internal">
        <lane id=":A_1_0" index="0" speed="13.89" length="14.40" shape="98.40,107.20 98.40,92.80"/>
    </edge>
    <edge id=":A_2" function="internal">
        <lane id=":A_2_0" index="0" speed="8.00" length="4.07" shape="98.40,107.20 98.95,103.35 99.04,103.20"/>
    </edge>
    <edge id=":A_3" function="internal">
        <lane id=":A_3_0" index="0" speed="3.65" length="1.44" shape="98.40,107.20 99.20,106.00"/>
    </edge>
    <edge id=":A_16" function="internal">
        <lane id=":A_16_0" index="0" speed="8.00" length="10.13" shape="99.04,103.20 100.60,100.60 103.35,98.95 107.20,98.40"/>
    </edge>
    <edge id=":A_17" function="internal">
        <lane id=":A_17_0" index="0" speed="3.65" length="3.23" shape="99.20,106.00 100.00,105.60 100.80,106.00 101.60,107.20"/>
    </edge>
    <edge id=":A_4" function="internal">
        <lane id=":A_4_0" index="0" speed="6.51" length="9.03" shape="107.20,101.60 104.75,101.95 103.00,103.00 101.95,104.75 101.60,107.20"/>
    </edge>
    <edge id=":A_5" function="internal">
        <lane id=":A_5_0" index="0" speed="13.89" length="14.40" shape="107.20,101.60 92.80,101.60"/>
    </edge>
    <edge id=":A_6" function="internal">
        <lane id=":A_6_0" index="0" speed="8.00" length="14.19" shape="107.20,101.60 103.35,101.05 100.60,99.40 98.95,96.65 98.40,92.80"/>
    </edge>
    <edge id=":A_7" function="internal">
        <lane id=":A_7_0" index="0" speed="3.65" length="4.67" shape="107.20,101.60 106.00,100.80 105.60,100.00 106.00,99.20 107.20,98.40"/>
    </edge>
    <edge id=":A_8" function="internal">
        <lane id=":A_8_0" index="0" speed="6.51" length="9.03" shape="101.60,92.80 101.95,95.25 103.00,97.00 104.75,98.05 107.20,98.40"/>
    </edge>
    <edge id=":A_9" function="internal">
        <lane id=":A_9_0" index="0" speed="13.89" length="14.40" shape="101.60,92.80 101.60,107.20"/>
    </edge>
    <edge id=":A_10" function="internal">
        <lane id=":A_10_0" index="0" speed="8.00" length="4.07" shape="101.60,92.80 101.05,96.65 100.96,96.80"/>
    </edge>
    <edge id=":A_11" function="internal">
        <lane id=":A_11_0" index="0" speed="3.65" length="1.44" shape="101.60,92.80 100.80,94.00"/>
    </edge>
    <edge id=":A_18" function="internal">
        <lane id=":A_18_0" index="0" speed="8.00" length="10.13" shape="100.96,96.80 99.40,99.40 96.65,101.05 92.80,101.60"/>
    </edge>
    <edge id=":A_19" function="internal">
        <lane id=":A_19_0" index="0" speed="3.65" length="3.23" shape="100.80,94.00 100.00,94.40 99.20,94.00 98.40,92.80"/>
    </edge>
    <edge id=":A_12" function="internal">
        <lane id=":A_12_0" index="0" speed="6.51" length="9.03" shape="92.80,98.40 95.25,98.05 97.00,97.00 98.05,95.25 98.40,92.80"/>
    </edge>
    <edge id=":A_13" function="internal">
        <lane id=":A_13_0" index="0" speed="13.89" length="14.40" shape="92.80,98.40 107.20,98.40"/>
    </edge>
    <edge id=":A_14" function="internal">
        <lane id=":A_14_0" index="0" speed="8.00" length="14.19" shape="92.80,98.40 96.65,98.95 99.40,100.60 101.05,103.35 101.60,107.20"/>
    </edge>
    <edge id=":A_15" function="internal">
        <lane id=":A_15_0" index="0" speed="3.65" length="4.67" shape="92.80,98.40 94.00,99.20 94.40,100.00 94.00,100.80 92.80,101.60"/>
    </edge>
    <edge id=":B_0" function="internal">
        <lane id=":B_0_0" index="0" speed="3.65" length="4.67" shape="200.00,98.40 201.20,99.20 201.60,100.00 201.20,100.80 200.00,101.60"/>
    </edge>
    <edge id=":C_0" function="internal">
        <lane id=":C_0_0" index="0" speed="3.65" length="4.67" shape="101.60,200.00 100.80,201.20 100.00,201.60 99.20,201.20 98.40,200.00"/>
    </edge>
    <edge id=":D_0" function="internal">
        <lane id=":D_0_0" index="0" speed="3.65" length="4.67" shape="0.00,101.60 -1.20,100.80 -1.60,100.00 -1.20,99.20 0.00,98.40"/>
    </edge>
    <edge id=":E_0" function="internal">
        <lane id=":E_0_0" index="0" speed="3.65" length="4.67" shape="98.40,0.00 99.20,-1.20 100.00,-1.60 100.80,-1.20 101.60,0.00"/>
    </edge>

    <edge id="A_B" from="A" to="B" priority="-1">
        <lane id="A_B_0" index="0" speed="13.89" length="92.80" shape="107.20,98.40 200.00,98.40"/>
    </edge>
    <edge id="A_C" from="A" to="C" priority="-1">
        <lane id="A_C_0" index="0" speed="13.89" length="92.80" shape="101.60,107.20 101.60,200.00"/>
    </edge>
    <edge id="A_D" from="A" to="D" priority="-1">
        <lane id="A_D_0" index="0" speed="13.89" length="92.80" shape="92.80,101.60 0.00,101.60"/>
    </edge>
    <edge id="A_E" from="A" to="E" priority="-1">
        <lane id="A_E_0" index="0" speed="13.89" length="92.80" shape="98.40,92.80 98.40,0.00"/>
    </edge>
    <edge id="B_A" from="B" to="A" priority="-1">
        <lane id="B_A_0" index="0" speed="13.89" length="92.80" shape="200.00,101.60 107.20,101.60"/>
    </edge>
    <edge id="C_A" from="C" to="A" priority="-1">
        <lane id="C_A_0" index="0" speed="13.89" length="92.80" shape="98.40,200.00 98.40,107.20"/>
    </edge>
    <edge id="D_A" from="D" to="A" priority="-1">
        <lane id="D_A_0" index="0" speed="13.89" length="92.80" shape="0.00,98.40 92.80,98.40"/>
    </edge>
    <edge id="E_A" from="E" to="A" priority="-1">
        <lane id="E_A_0" index="0" speed="13.89" length="92.80" shape="101.60,0.00 101.60,92.80"/>
    </edge>

    <junction id="A" type="priority" x="100.00" y="100.00" incLanes="C_A_0 B_A_0 E_A_0 D_A_0" intLanes=":A_0_0 :A_1_0 :A_16_0 :A_17_0 :A_4_0 :A_5_0 :A_6_0 :A_7_0 :A_8_0 :A_9_0 :A_18_0 :A_19_0 :A_12_0 :A_13_0 :A_14_0 :A_15_0" shape="96.80,107.20 103.20,107.20 103.64,104.98 104.20,104.20 104.98,103.64 105.98,103.31 107.20,103.20 107.20,96.80 104.98,96.36 104.20,95.80 103.64,95.02 103.31,94.02 103.20,92.80 96.80,92.80 96.36,95.02 95.80,95.80 95.02,96.36 94.02,96.69 92.80,96.80 92.80,103.20 95.02,103.64 95.80,104.20 96.36,104.98 96.69,105.98">
        <request index="0"  response="0000000000000000" foes="1000010000100000" cont="0"/>
        <request index="1"  response="0000000000000000" foes="0111110001100000" cont="0"/>
        <request index="2"  response="0000011100000000" foes="0110011111100000" cont="1"/>
        <request index="3"  response="0100001000010000" foes="0100001000010000" cont="1"/>
        <request index="4"  response="0000001000000000" foes="0100001000001000" cont="0"/>
        <request index="5"  response="0000011000000111" foes="1100011000000111" cont="0"/>
        <request index="6"  response="0111011000000110" foes="0111111000000110" cont="0"/>
        <request index="7"  response="0010000100000100" foes="0010000100000100" cont="0"/>
        <request index="8"  response="0000000000000000" foes="0010000010000100" cont="0"/>
        <request index="9"  response="0000000000000000" foes="0110000001111100" cont="0"/>
        <request index="10" response="0000000000000011" foes="1110000001100111" cont="1"/>
        <request index="11" response="0001000001000010" foes="0001000001000010" cont="1"/>
        <request index="12" response="0000000000000010" foes="0000100001000010" cont="0"/>
        <request index="13" response="0000011100000110" foes="0000011111000110" cont="0"/>
        <request index="14" response="0000011000110110" foes="0000011001111110" cont="0"/>
        <request index="15" response="0000010000100001" foes="0000010000100001" cont="0"/>
    </junction>
    <junction id="B" type="priority" x="200.00" y="100.00" incLanes="A_B_0" intLanes=":B_0_0" shape="200.00,100.00 200.00,96.80 200.00,100.00">
        <request index="0" response="0" foes="0" cont="0"/>
    </junction>
    <junction id="C" type="priority" x="100.00" y="200.00" incLanes="A_C_0" intLanes=":C_0_0" shape="100.00,200.00 103.20,200.00 100.00,200.00">
        <request index="0" response="0" foes="0" cont="0"/>
    </junction>
    <junction id="D" type="priority" x="0.00" y="100.00" incLanes="A_D_0" intLanes=":D_0_0" shape="0.00,100.00 0.00,103.20 0.00,100.00">
        <request index="0" response="0" foes="0" cont="0"/>
    </junction>
    <junction id="E" type="priority" x="100.00" y="0.00" incLanes="A_E_0" intLanes=":E_0_0" shape="100.00,0.00 96.80,0.00 100.00,0.00">
        <request index="0" response="0" foes="0" cont="0"/>
    </junction>

    <junction id=":A_16_0" type="internal" x="99.04" y="103.20" incLanes=":A_2_0 E_A_0" intLanes=":A_5_0 :A_6_0 :A_7_0 :A_8_0 :A_9_0 :A_13_0 :A_14_0"/>
    <junction id=":A_17_0" type="internal" x="99.20" y="106.00" incLanes=":A_3_0 B_A_0 D_A_0 E_A_0" intLanes=":A_4_0 :A_9_0 :A_14_0"/>
    <junction id=":A_18_0" type="internal" x="100.96" y="96.80" incLanes=":A_10_0 C_A_0" intLanes=":A_0_0 :A_1_0 :A_5_0 :A_6_0 :A_13_0 :A_14_0 :A_15_0"/>
    <junction id=":A_19_0" type="internal" x="100.80" y="94.00" incLanes=":A_11_0 B_A_0 C_A_0 D_A_0" intLanes=":A_1_0 :A_6_0 :A_12_0"/>

    <connection from="A_B" to="B_A" fromLane="0" toLane="0" via=":B_0_0" dir="t" state="M"/>
    <connection from="A_C" to="C_A" fromLane="0" toLane="0" via=":C_0_0" dir="t" state="M"/>
    <connection from="A_D" to="D_A" fromLane="0" toLane="0" via=":D_0_0" dir="t" state="M"/>
    <connection from="A_E" to="E_A" fromLane="0" toLane="0" via=":E_0_0" dir="t" state="M"/>
    <connection from="B_A" to="A_C" fromLane="0" toLane="0" via=":A_4_0" dir="r" state="m"/>
    <connection from="B_A" to="A_D" fromLane="0" toLane="0" via=":A_5_0" dir="s" state="m"/>
    <connection from="B_A" to="A_E" fromLane="0" toLane="0" via=":A_6_0" dir="l" state="m"/>
    <connection from="B_A" to="A_B" fromLane="0" toLane="0" via=":A_7_0" dir="t" state="m"/>
    <connection from="C_A" to="A_D" fromLane="0" toLane="0" via=":A_0_0" dir="r" state="M"/>
    <connection from="C_A" to="A_E" fromLane="0" toLane="0" via=":A_1_0" dir="s" state="M"/>
    <connection from="C_A" to="A_B" fromLane="0" toLane="0" via=":A_2_0" dir="l" state="m"/>
    <connection from="C_A" to="A_C" fromLane="0" toLane="0" via=":A_3_0" dir="t" state="m"/>
    <connection from="D_A" to="A_E" fromLane="0" toLane="0" via=":A_12_0" dir="r" state="m"/>
    <connection from="D_A" to="A_B" fromLane="0" toLane="0" via=":A_13_0" dir="s" state="m"/>
    <connection from="D_A" to="A_C" fromLane="0" toLane="0" via=":A_14_0" dir="l" state="m"/>
    <connection from="D_A" to="A_D" fromLane="0" toLane="0" via=":A_15_0" dir="t" state="m"/>
    <connection from="E_A" to="A_B" fromLane="0" toLane="0" via=":A_8_0" dir="r" state="M"/>
    <connection from="E_A" to="A_C" fromLane="0" toLane="0" via=":A_9_0" dir="s" state="M"/>
    <connection from="E_A" to="A_D" fromLane="0" toLane="0" via=":A_10_0" dir="l" state="m"/>
    <connection from="E_A" to="A_E" fromLane="0" toLane="0" via=":A_11_0" dir="t" state="m"/>

    <connection from=":A_0" to="A_D" fromLane="0" toLane="0" dir="r" state="M"/>
    <connection from=":A_1" to="A_E" fromLane="0" toLane="0" dir="s" state="M"/>
    <connection from=":A_2" to="A_B" fromLane="0" toLane="0" via=":A_16_0" dir="l" state="m"/>
    <connection from=":A_16" to="A_B" fromLane="0" toLane="0" dir="l" state="M"/>
    <connection from=":A_3" to="A_C" fromLane="0" toLane="0" via=":A_17_0" dir="t" state="m"/>
    <connection from=":A_17" to="A_C" fromLane="0" toLane="0" dir="t" state="M"/>
    <connection from=":A_4" to="A_C" fromLane="0" toLane="0" dir="r" state="M"/>
    <connection from=":A_5" to="A_D" fromLane="0" toLane="0" dir="s" state="M"/>
    <connection from=":A_6" to="A_E" fromLane="0" toLane="0" dir="l" state="M"/>
    <connection from=":A_7" to="A_B" fromLane="0" toLane="0" dir="t" state="M"/>
    <connection from=":A_8" to="A_B" fromLane="0" toLane="0" dir="r" state="M"/>
    <connection from=":A_9" to="A_C" fromLane="0" toLane="0" dir="s" state="M"/>
    <connection from=":A_10" to="A_D" fromLane="0" toLane="0" via=":A_18_0" dir="l" state="m"/>
    <connection from=":A_18" to="A_D" fromLane="0" toLane="0" dir="l" state="M"/>
    <connection from=":A_11" to="A_E" fromLane="0" toLane="0" via=":A_19_0" dir="t" state="m"/>
    <connection from=":A_19" to="A_E" fromLane="0" toLane="0" dir="t" state="M"/>
    <connection from=":A_12" to="A_E" fromLane="0" toLane="0" dir="r" state="M"/>
    <connection from=":A_13" to="A_B" fromLane="0" toLane="0" dir="s" state="M"/>
    <connection from=":A_14" to="A_C" fromLane="0" toLane="0" dir="l" state="M"/>
    <connection from=":A_15" to="A_D" fromLane="0" toLane="0" dir="t" state="M"/>
    <connection from=":B_0" to="B_A" fromLane="0" toLane="0" dir="t" state="M"/>
    <connection from=":C_0" to="C_A" fromLane="0" toLane="0" dir="t" state="M"/>
    <connection from=":D_0" to="D_A" fromLane="0" toLane="0" dir="t" state="M"/>
    <connection from=":E_0" to="E_A" fromLane="0" toLane="0" dir="t" state="M"/>

</net>
