<?xml version="1.0" encoding="UTF-8"?>
<nodes>
    <node id="A" x="0" y="0" type="priority"/>
    <node id="B" x="100" y="0" type="priority"/>
    <node id="C" x="0" y="100" type="priority"/>
    <node id="D" x="-100" y="0" type="priority"/>
    <node id="E" x="0" y="-100" type="priority"/>
</nodes>
