<?xml version="1.0" encoding="UTF-8"?>
<routes>
    <!-- 定義路線 -->
    <route id="route1" edges="A_B B_A"/>
    <route id="route2" edges="A_C C_A"/>
    <!-- 定義車輛類型 -->
    <vType id="Vehicle" accel="2.6" decel="4.5" sigma="0.5" length="5" maxSpeed="30" color="white"/>

    <!-- 車輛 -->
    <vehicle id="veh1" type="Vehicle" route="route1" depart="0"/>
    <vehicle id="veh2" type="Vehicle" route="route2" depart="10"/>
    <vehicle id="veh3" type="Vehicle" route="route1" depart="20"/>
    <vehicle id="veh4" type="Vehicle" route="route2" depart="30"/>
    <vehicle id="veh5" type="Vehicle" route="route1" depart="40"/>


</routes>

